8         
SiO2                6.6570275987        6.6570275987        6.6570275987        
Sn   0.0000000000        0.0000000000        0.0000000000        
Sn   0.0000000000        3.3285137994        3.3285137994        
Sn   3.3285137994        0.0000000000        3.3285137994        
Sn   3.3285137994        3.3285137994        0.0000000000        
Sn   1.6642569002        1.6642569002        1.6642569002        
Sn   1.6642569002        4.9927706996        4.9927706996        
Sn   4.9927706996        1.6642569002        4.9927706996        
Sn   4.9927706996        4.9927706996        1.6642569002        
