277
 Atoms. Timestep: 0
H 0 11 10
N 11.2968 15.9162 13.2656
C 20.483 15.3686 7.7282
O 20.2912 16.3898 8.3876
C 19.5389 14.2406 7.9654
C 19.6592 13.0295 7.2964
N 18.8156 11.9859 7.4766
C 17.8042 12.1582 8.3642
C 17.5871 13.3325 9.0797
C 16.4361 13.3721 10.0172
O 16.015 12.2969 10.428
N 15.9172 14.624 10.3113
C 14.7917 14.9005 11.1246
C 14.0648 13.9282 11.8104
C 12.926 14.2748 12.5497
C 12.5194 15.6031 12.6631
C 13.2299 16.5734 11.9569
C 14.3677 16.2315 11.2119
C 18.4842 14.3858 8.8832
H 20.4478 12.8276 6.577
H 17.1504 11.2954 8.4805
H 16.3106 15.4279 9.8428
H 14.3355 12.8782 11.7785
H 12.3573 13.4834 13.0312
H 11 15.2462 13.9685
H 12.8974 17.608 11.9692
H 14.8931 17.0228 10.6847
H 18.3948 15.3095 9.4491
N 22.5819 8.4029 10.5926
C 32.3657 13.6958 15.4732
O 28.509 11.0745 11.1114
C 28.3037 11.0453 12.3195
N 27.2371 10.4488 12.9701
C 26.1298 9.8363 12.3447
C 26.0081 9.718 10.9614
C 24.8476 9.2008 10.3874
C 23.8028 8.7393 11.1829
C 23.9198 8.8565 12.5696
C 25.084 9.3769 13.1516
C 29.3137 11.7035 13.181
C 30.6328 11.7385 12.7107
C 31.6293 12.3787 13.446
C 31.317 12.9997 14.6614
O 32.0021 14.2134 16.5249
C 29.9837 12.9754 15.1234
C 28.9853 12.3365 14.384
H 27.2221 10.4631 13.981
H 26.7864 10.0453 10.2822
H 24.7718 9.1825 9.3039
H 22.6687 8.0876 9.6311
H 23.0937 8.5621 13.2112
H 25.1346 9.4512 14.2343
H 30.8846 11.2743 11.758
H 32.6349 12.3838 13.0364
H 29.7179 13.4747 16.054
H 27.9589 12.3785 14.7386
N 34.351 8.4029 10.5926
C 44.1348 13.6958 15.4732
O 40.2781 11.0745 11.1114
C 40.0728 11.0453 12.3195
N 39.0062 10.4488 12.9701
C 37.8989 9.8363 12.3447
C 37.7772 9.718 10.9614
C 36.6167 9.2008 10.3874
C 35.5719 8.7393 11.1829
C 35.6889 8.8565 12.5696
C 36.8531 9.3769 13.1516
C 41.0828 11.7035 13.181
C 42.4019 11.7385 12.7107
C 43.3984 12.3787 13.446
C 43.0861 12.9997 14.6614
O 43.7712 14.2134 16.5249
C 41.7528 12.9754 15.1234
C 40.7544 12.3365 14.384
H 38.9912 10.4631 13.981
H 38.5555 10.0453 10.2822
H 36.5409 9.1825 9.3039
H 34.4378 8.0876 9.6311
H 34.8628 8.5621 13.2112
H 36.9037 9.4512 14.2343
H 42.6537 11.2743 11.758
H 44.404 12.3838 13.0364
H 41.487 13.4747 16.054
H 39.728 12.3785 14.7386
N 45.835 15.9162 13.2656
C 55.0212 15.3686 7.7282
O 54.8294 16.3898 8.3876
C 54.0771 14.2406 7.9654
C 54.1974 13.0295 7.2964
N 53.3538 11.9859 7.4766
C 52.3424 12.1582 8.3642
C 52.1253 13.3325 9.0797
C 50.9743 13.3721 10.0172
O 50.5532 12.2969 10.428
N 50.4554 14.624 10.3113
C 49.3299 14.9005 11.1246
C 48.603 13.9282 11.8104
C 47.4642 14.2748 12.5497
C 47.0576 15.6031 12.6631
C 47.7681 16.5734 11.9569
C 48.9059 16.2315 11.2119
C 53.0224 14.3858 8.8832
H 54.986 12.8276 6.577
H 51.6886 11.2954 8.4805
H 50.8488 15.4279 9.8428
H 48.8737 12.8782 11.7785
H 46.8955 13.4834 13.0312
H 45.5382 15.2462 13.9685
H 47.4356 17.608 11.9692
H 49.4313 17.0228 10.6847
H 52.933 15.3095 9.4491
N 57.1201 8.4029 10.5926
C 66.9039 13.6958 15.4732
O 63.0472 11.0745 11.1114
C 62.8419 11.0453 12.3195
N 61.7753 10.4488 12.9701
C 60.668 9.8363 12.3447
C 60.5463 9.718 10.9614
C 59.3858 9.2008 10.3874
C 58.341 8.7393 11.1829
C 58.458 8.8565 12.5696
C 59.6222 9.3769 13.1516
C 63.8519 11.7035 13.181
C 65.171 11.7385 12.7107
C 66.1675 12.3787 13.446
C 65.8552 12.9997 14.6614
O 66.5403 14.2134 16.5249
C 64.5219 12.9754 15.1234
C 63.5235 12.3365 14.384
H 61.7603 10.4631 13.981
H 61.3246 10.0453 10.2822
H 59.31 9.1825 9.3039
H 57.2069 8.0876 9.6311
H 57.6319 8.5621 13.2112
H 59.6728 9.4512 14.2343
H 65.4228 11.2743 11.758
H 67.1731 12.3838 13.0364
H 64.2561 13.4747 16.054
H 62.4971 12.3785 14.7386
N 68.6041 15.9162 13.2656
C 77.7903 15.3686 7.7282
O 77.5985 16.3898 8.3876
C 76.8462 14.2406 7.9654
C 76.9665 13.0295 7.2964
N 76.1229 11.9859 7.4766
C 75.1115 12.1582 8.3642
C 74.8944 13.3325 9.0797
C 73.7434 13.3721 10.0172
O 73.3223 12.2969 10.428
N 73.2245 14.624 10.3113
C 72.099 14.9005 11.1246
C 71.3721 13.9282 11.8104
C 70.2333 14.2748 12.5497
C 69.8267 15.6031 12.6631
C 70.5372 16.5734 11.9569
C 71.675 16.2315 11.2119
C 75.7915 14.3858 8.8832
H 77.7551 12.8276 6.577
H 74.4577 11.2954 8.4805
H 73.6179 15.4279 9.8428
H 71.6428 12.8782 11.7785
H 69.6646 13.4834 13.0312
H 68.3073 15.2462 13.9685
H 70.2047 17.608 11.9692
H 72.2004 17.0228 10.6847
H 75.7021 15.3095 9.4491
N 79.8892 8.4029 10.5926
C 89.673 13.6958 15.4732
O 85.8163 11.0745 11.1114
C 85.611 11.0453 12.3195
N 84.5444 10.4488 12.9701
C 83.4371 9.8363 12.3447
C 83.3154 9.718 10.9614
C 82.1549 9.2008 10.3874
C 81.1101 8.7393 11.1829
C 81.2271 8.8565 12.5696
C 82.3913 9.3769 13.1516
C 86.621 11.7035 13.181
C 87.9401 11.7385 12.7107
C 88.9366 12.3787 13.446
C 88.6243 12.9997 14.6614
O 89.3094 14.2134 16.5249
C 87.291 12.9754 15.1234
C 86.2926 12.3365 14.384
H 84.5294 10.4631 13.981
H 84.0937 10.0453 10.2822
H 82.0791 9.1825 9.3039
H 79.976 8.0876 9.6311
H 80.401 8.5621 13.2112
H 82.4419 9.4512 14.2343
H 88.1919 11.2743 11.758
H 89.9422 12.3838 13.0364
H 87.0252 13.4747 16.054
H 85.2662 12.3785 14.7386
N 91.6583 8.4029 10.5926
C 101.442 13.6958 15.4732
O 97.5854 11.0745 11.1114
C 97.3801 11.0453 12.3195
N 96.3135 10.4488 12.9701
C 95.2062 9.8363 12.3447
C 95.0845 9.718 10.9614
C 93.924 9.2008 10.3874
C 92.8792 8.7393 11.1829
C 92.9962 8.8565 12.5696
C 94.1604 9.3769 13.1516
C 98.3901 11.7035 13.181
C 99.7092 11.7385 12.7107
C 100.706 12.3787 13.446
C 100.393 12.9997 14.6614
O 101.079 14.2134 16.5249
C 99.0601 12.9754 15.1234
C 98.0617 12.3365 14.384
H 96.2985 10.4631 13.981
H 95.8628 10.0453 10.2822
H 93.8482 9.1825 9.3039
H 91.7451 8.0876 9.6311
H 92.1701 8.5621 13.2112
H 94.211 9.4512 14.2343
H 99.961 11.2743 11.758
H 101.711 12.3838 13.0364
H 98.7943 13.4747 16.054
H 97.0353 12.3785 14.7386
N 103.143 15.9162 13.2656
C 112.329 15.3686 7.7282
O 112.137 16.3898 8.3876
C 111.385 14.2406 7.9654
C 111.505 13.0295 7.2964
N 110.662 11.9859 7.4766
C 109.65 12.1582 8.3642
C 109.433 13.3325 9.0797
C 108.282 13.3721 10.0172
O 107.861 12.2969 10.428
N 107.763 14.624 10.3113
C 106.638 14.9005 11.1246
C 105.911 13.9282 11.8104
C 104.772 14.2748 12.5497
C 104.365 15.6031 12.6631
C 105.076 16.5734 11.9569
C 106.214 16.2315 11.2119
C 110.33 14.3858 8.8832
H 112.294 12.8276 6.577
H 108.996 11.2954 8.4805
H 108.157 15.4279 9.8428
H 106.181 12.8782 11.7785
H 104.203 13.4834 13.0312
H 102.846 15.2462 13.9685
H 104.743 17.608 11.9692
H 106.739 17.0228 10.6847
H 110.241 15.3095 9.4491
N 114.143 15.9162 13.2656
C 123.329 15.3686 7.7282
O 123.137 16.3898 8.3876
C 122.385 14.2406 7.9654
C 122.505 13.0295 7.2964
N 121.662 11.9859 7.4766
C 120.65 12.1582 8.3642
C 120.433 13.3325 9.0797
C 119.282 13.3721 10.0172
O 118.861 12.2969 10.428
N 118.763 14.624 10.3113
C 117.638 14.9005 11.1246
C 116.911 13.9282 11.8104
C 115.772 14.2748 12.5497
C 115.365 15.6031 12.6631
C 116.076 16.5734 11.9569
C 117.214 16.2315 11.2119
C 121.33 14.3858 8.8832
H 123.294 12.8276 6.577
H 119.996 11.2954 8.4805
H 119.157 15.4279 9.8428
H 117.181 12.8782 11.7785
H 115.203 13.4834 13.0312
H 113.846 15.2462 13.9685
H 115.743 17.608 11.9692
H 117.739 17.0228 10.6847
H 121.241 15.3095 9.4491
H 124.846 11 10
277
 Atoms. Timestep: 210
H 10.6963 16.807 12.382
N 10.8806 15.8424 12.6165
C 20.6303 12.0356 10.5437
O 20.5694 12.5937 11.6154
C 19.4612 12.0148 9.60192
C 19.5833 11.6051 8.26809
N 18.5414 11.5628 7.4068
C 17.3298 11.952 7.86294
C 17.1206 12.4222 9.15872
C 15.747 12.8801 9.53505
O 14.7791 12.6873 8.8327
N 15.6226 13.5517 10.6898
C 14.4177 14.1124 11.1698
C 13.6577 13.4342 12.1178
C 12.4713 14.0022 12.5942
C 12.0613 15.2457 12.1224
C 12.8218 15.922 11.1766
C 14.007 15.3565 10.6977
C 18.2074 12.4465 10.0433
H 20.5411 11.3186 7.84826
H 16.5101 11.9023 7.14351
H 16.4547 13.7782 11.2019
H 13.9967 12.466 12.4726
H 11.8662 13.493 13.3376
H 10.1496 15.2551 12.9914
H 12.476 16.8874 10.8202
H 14.6106 15.8696 9.95618
H 18.1057 12.7807 11.0715
N 21.7452 11.3936 10.1269
C 33.4624 10.6657 13.5908
O 27.948 12.074 10.5022
C 28.0819 11.4995 11.5621
N 26.9978 11.0282 12.213
C 25.6588 11.0824 11.7218
C 25.3819 10.7846 10.3892
C 24.085 10.8944 9.89039
C 23.0392 11.2935 10.7209
C 23.3039 11.5314 12.0726
C 24.6098 11.4242 12.5716
C 29.4485 11.2695 12.1487
C 30.5492 11.6308 11.3676
C 31.8465 11.4345 11.8233
C 32.0708 10.8594 13.0753
O 33.727 10.7043 14.7731
C 30.9803 10.5075 13.8703
C 29.6741 10.7092 13.4134
H 27.1191 10.6273 13.1219
H 26.2007 10.4995 9.73259
H 23.8874 10.6904 8.84455
H 21.6817 10.9325 9.24241
H 22.4931 11.8127 12.7343
H 24.8099 11.6338 13.6171
H 30.3903 12.0768 10.3831
H 32.6841 11.7558 11.2128
H 31.173 10.068 14.849
H 28.8426 10.4286 14.0547
N 34.3982 10.4528 12.6456
C 44.8978 14.9642 14.2981
O 40.8752 10.8161 11.2202
C 40.9497 11.1531 12.3819
N 39.9714 10.8513 13.2548
C 38.5983 10.5799 12.9985
C 37.9602 11.0367 11.8452
C 36.5691 10.9617 11.7397
C 35.8111 10.4416 12.7846
C 36.4497 9.95181 13.9194
C 37.8415 10.0329 14.0305
C 42.0756 11.9977 12.9217
C 43.1007 12.4218 12.0671
C 44.0642 13.3386 12.4994
C 44.0286 13.8371 13.8072
O 44.5687 15.6536 15.2372
C 43.0173 13.4009 14.6618
C 42.051 12.4986 14.2301
H 40.1671 11.0164 14.222
H 38.5445 11.4863 11.0495
H 36.0631 11.3495 10.8604
H 34.0704 10.3606 11.7038
H 35.8544 9.54465 14.7306
H 38.3302 9.69853 14.939
H 43.1076 12.0753 11.0316
H 44.7995 13.719 11.797
H 42.9539 13.8231 15.6635
H 41.2486 12.2466 14.9169
N 46.0574 15.3071 13.7253
C 55.49 11.9307 10.6239
O 55.4056 12.3847 11.745
C 54.2777 11.8075 9.7468
C 54.3697 11.6353 8.36226
N 53.2873 11.5892 7.55418
C 52.067 11.7287 8.11925
C 51.8792 11.9337 9.48741
C 50.4873 12.1728 9.99264
O 49.4998 11.8265 9.38472
N 50.37 12.8605 11.139
C 49.1611 13.3781 11.6757
C 48.4787 12.6922 12.6772
C 47.3931 13.297 13.3241
C 46.9878 14.576 12.9502
C 47.649 15.2428 11.9255
C 48.7342 14.6426 11.2828
C 53.01 11.9551 10.3133
H 55.3316 11.5736 7.85939
H 51.2176 11.7176 7.43465
H 51.2137 13.2005 11.5659
H 48.8227 11.7046 12.9699
H 46.89 12.8094 14.1556
H 46.4057 16.1843 14.0743
H 47.3305 16.2498 11.6646
H 49.27 15.1687 10.498
H 52.9299 12.089 11.3885
N 56.6709 11.5332 10.1035
C 67.1971 14.6171 14.4613
O 63.2401 11.1181 10.5686
C 63.1233 11.6247 11.6615
N 61.9138 11.8312 12.2235
C 60.6119 11.7074 11.6541
C 60.3694 11.7337 10.2798
C 59.0614 11.6774 9.79131
C 57.979 11.6193 10.666
C 58.2211 11.6058 12.04
C 59.5294 11.6586 12.5275
C 64.2927 12.1691 12.4321
C 65.4215 12.6003 11.7302
C 66.4209 13.3377 12.3694
C 66.3164 13.6312 13.734
O 66.8347 15.1603 15.4781
C 65.2353 13.1126 14.4509
C 64.2338 12.385 13.8139
H 61.9174 12.2237 13.1442
H 61.2019 11.8053 9.58513
H 58.877 11.6902 8.72243
H 56.6485 11.1308 9.18646
H 57.3862 11.5538 12.7308
H 59.7064 11.6602 13.5993
H 65.4752 12.4268 10.6548
H 67.2325 13.7472 11.7768
H 65.1521 13.3407 15.5116
H 63.3881 12.029 14.397
N 68.4101 14.9792 14.0327
C 77.6426 11.9577 10.6764
O 77.5088 12.2947 11.8322
C 76.4844 11.95 9.72112
C 76.6445 11.7896 8.33903
N 75.6097 11.7713 7.47191
C 74.3642 11.9331 7.96855
C 74.1105 12.142 9.32327
C 72.7028 12.3982 9.76065
O 71.7374 12.197 9.05875
N 72.5653 12.9162 10.9866
C 71.365 13.34 11.5936
C 70.7934 12.5581 12.5915
C 69.7542 13.0771 13.3648
C 69.2988 14.3686 13.127
C 69.8478 15.1361 12.108
C 70.8838 14.6179 11.3308
C 75.1933 12.136 10.2138
H 77.6286 11.6929 7.88879
H 73.5497 11.9275 7.24231
H 73.4012 13.1341 11.4952
H 71.196 11.5678 12.7856
H 69.3306 12.5142 14.1947
H 68.8162 15.7133 14.5884
H 69.4888 16.1536 11.9614
H 71.3516 15.217 10.5533
H 75.0637 12.2667 11.2832
N 78.8261 11.5556 10.1691
C 90.5775 10.6178 13.5133
O 85.0746 12.1502 10.4553
C 85.1955 11.5889 11.5237
N 84.0997 11.1815 12.1974
C 82.7576 11.2503 11.7138
C 82.4633 10.9791 10.3784
C 81.1592 11.0914 9.90047
C 80.1218 11.4558 10.7551
C 80.4047 11.6804 12.1046
C 81.7183 11.5745 12.5814
C 86.5605 11.313 12.0972
C 87.6656 11.6604 11.314
C 88.9618 11.4328 11.7605
C 89.1841 10.8368 13.0024
O 90.8399 10.6289 14.6968
C 88.0896 10.4869 13.794
C 86.784 10.7188 13.3478
H 84.2117 10.8341 13.1288
H 83.2694 10.7092 9.70048
H 80.9488 10.91 8.85242
H 78.8083 11.2653 9.2124
H 79.6064 11.9505 12.7856
H 81.9316 11.7702 13.6283
H 87.5089 12.1218 10.3375
H 89.801 11.749 11.1495
H 88.2775 10.0252 14.7632
H 85.9496 10.4333 13.9834
N 91.5179 10.415 12.5676
C 101.926 14.7855 14.7684
O 98.0218 10.9462 11.154
C 98.0717 11.1511 12.348
N 97.1075 10.712 13.1799
C 95.7281 10.4645 12.9214
C 95.0951 10.9101 11.7606
C 93.7029 10.8554 11.6561
C 92.932 10.3681 12.7083
C 93.5656 9.87543 13.8462
C 94.9593 9.93749 13.9568
C 99.1647 11.9639 12.9919
C 100.276 12.3821 12.2502
C 101.221 13.2587 12.7989
C 101.075 13.7233 14.114
O 101.589 15.3079 15.8076
C 99.9783 13.2821 14.8543
C 99.0296 12.4316 14.303
H 97.3245 10.7535 14.1576
H 95.6813 11.3382 10.956
H 93.2065 11.2341 10.7681
H 91.1928 10.3602 11.6219
H 92.9651 9.47972 14.6589
H 95.4411 9.60576 14.8709
H 100.378 12.0549 11.213
H 102.035 13.6146 12.1803
H 99.8338 13.6562 15.8657
H 98.1539 12.1944 14.9014
N 103.072 15.2677 14.275
C 112.444 15.2787 9.678
O 112.814 16.1808 8.96304
C 111.32 14.3867 9.28869
C 111.459 13.6422 8.11994
N 110.555 12.7197 7.71977
C 109.447 12.5602 8.48004
C 109.189 13.3243 9.62037
C 107.885 13.1381 10.324
O 107.313 12.0751 10.3803
N 107.352 14.2494 10.8571
C 106.136 14.3662 11.5902
C 105.762 13.42 12.546
C 104.673 13.6676 13.3893
C 103.956 14.8529 13.2589
C 104.293 15.7692 12.2714
C 105.384 15.5265 11.4338
C 110.163 14.2356 10.0525
H 112.347 13.7578 7.497
H 108.734 11.8132 8.13012
H 107.823 15.1134 10.6653
H 106.352 12.5146 12.6608
H 104.413 12.9823 14.1911
H 103.419 16.0298 14.8341
H 103.726 16.6956 12.203
H 105.671 16.2595 10.6855
H 110.04 14.8182 10.962
N 113.113 14.8951 10.7838
C 123.552 15.2301 8.80676
O 123.35 16.2336 9.45964
C 122.549 14.1371 8.66869
C 122.788 13.0411 7.83759
N 121.918 12.0131 7.71989
C 120.771 12.0697 8.43711
C 120.44 13.1451 9.26555
C 119.107 13.1348 9.94531
O 118.419 12.1388 9.95834
N 118.67 14.2898 10.4881
C 117.307 14.5705 10.7904
C 116.519 13.6525 11.4802
C 115.134 13.8203 11.537
C 114.533 14.9223 10.9353
C 115.339 15.9043 10.3567
C 116.721 15.7214 10.269
C 121.354 14.1954 9.38365
H 123.699 12.963 7.24402
H 120.092 11.2239 8.31754
H 119.27 15.0897 10.4421
H 116.987 12.7592 11.8853
H 114.514 13.0483 11.9806
H 112.674 14.1715 11.3226
H 114.878 16.7748 9.90005
H 117.327 16.44 9.72423
H 121.164 15.0505 10.0283
H 124.517 15.0721 8.27752
